
Note: Compatibility modes selected: hs a

Warning: m=xx on .subckt line will override multiplier m hierarchy!


Circuit: ** sch_path: /home/hugodg/projects-sky130/temp-sensor/amp-op/xschem/ampop_tb-tran.sch

option SCALE: Scale is set to 1e-06 for instance and model parameters
Doing analysis at TEMP = 27.000000 and TNOM = 27.000000

Warning: singular matrix:  check nodes x1.x2.e and x1.x2.e

Note: Starting dynamic gmin stepping
Trying gmin =   1.0000E-03 Note: One successful gmin step
Trying gmin =   1.0000E-04 Note: One successful gmin step
Trying gmin =   1.0000E-05 Note: One successful gmin step
Trying gmin =   1.0000E-06 Note: One successful gmin step
Trying gmin =   1.0000E-07 Note: One successful gmin step
Trying gmin =   1.0000E-08 Note: One successful gmin step
Trying gmin =   3.1623E-09 Note: One successful gmin step
Trying gmin =   5.6234E-10 Note: One successful gmin step
Trying gmin =   5.6234E-11 Note: One successful gmin step
Trying gmin =   5.6234E-12 Note: One successful gmin step
Trying gmin =   1.0000E-12 Note: One successful gmin step
Warning: singular matrix:  check nodes x1.x2.w_460_9160# and x1.x2.w_460_9160#

Warning: Dynamic gmin stepping failed
Note: Starting true gmin stepping
Trying gmin =   1.0000E-03 Warning: singular matrix:  check nodes x1.x2.w_460_9160# and x1.x2.w_460_9160#

Warning: Further gmin increment
Trying gmin =   5.6234E-03 Warning: singular matrix:  check nodes x1.x2.w_460_9160# and x1.x2.w_460_9160#

Warning: Further gmin increment
Trying gmin =   8.6596E-03 Warning: singular matrix:  check nodes x1.x2.w_460_9160# and x1.x2.w_460_9160#

Warning: Further gmin increment
Trying gmin =   9.6466E-03 Warning: singular matrix:  check nodes x1.x2.w_460_9160# and x1.x2.w_460_9160#

Warning: Further gmin increment
Trying gmin =   9.9105E-03 Warning: Further gmin increment
Trying gmin =   9.9775E-03 Warning: Further gmin increment
Trying gmin =   9.9944E-03 Warning: Further gmin increment
Trying gmin =   9.9986E-03 Warning: Further gmin increment
Trying gmin =   9.9996E-03 Warning: Last gmin step failed
Warning: True gmin stepping failed
Note: Starting source stepping
Supplies reduced to   0.0000% 
Trying gmin =   1.0000E-02 Note: One successful gmin step
Trying gmin =   1.0000E-03 Note: One successful gmin step
Trying gmin =   1.0000E-04 Note: One successful gmin step
Trying gmin =   1.0000E-05 Note: One successful gmin step
Trying gmin =   1.0000E-06 Note: One successful gmin step
Trying gmin =   1.0000E-07 Note: One successful gmin step
Trying gmin =   1.0000E-08 Note: One successful gmin step
Trying gmin =   1.0000E-09 Note: One successful gmin step
Trying gmin =   1.0000E-10 Note: One successful gmin step
Trying gmin =   1.0000E-11 Note: One successful gmin step
Trying gmin =   1.0000E-12 Note: One successful gmin step
Note: One successful source step
Supplies reduced to   0.1000% Supplies reduced to   0.0000% Warning: source stepping failed
Note: Transient op started
Note: Transient op finished successfully

Initial Transient Solution
--------------------------

Node                                   Voltage
----                                   -------
in1                                          1
ib                                    0.635909
vd                                         1.8
vs                                           0
out                                   0.329614
x1.x1.in.n1                           0.171674
x1.x1.in.n0                           0.171682
x1.x1.in.n5                           0.171636
x1.x1.in.n4                           0.171658
x1.x1.in.n3                           0.171658
x1.x1.in.n2                           0.171674
x1.x1.in.n7                           0.171611
x1.x1.in.n6                           0.171636
x1.x1.in.t9                           0.171682
x1.x1.in.t7                           0.171636
x1.x1.in.t2                           0.171682
x1.x1.in.t4                           0.171674
x1.x1.in.t0                           0.171658
x1.x1.in.t5                           0.171674
x1.x1.in.t8                           0.171637
x1.x1.in.t6                           0.171658
x1.x1.in.t3                           0.171611
x1.x1.in.n9                           0.171611
x1.x1.in.t1                           0.171611
x1.x1.in.n14                          0.171611
x1.x1.in.n13                          0.171611
x1.net1                                0.17161
x1.x1.in.n8                           0.171611
x1.x1.in.n12                          0.171611
x1.x1.in.n11                          0.171611
x1.x1.in.n10                          0.171611
x1.x1.out.t0                          0.329614
x1.x1.out.n7                          0.329615
x1.x1.out.n0                          0.329616
x1.x1.out.t2                          0.329616
x1.x1.out.n2                          0.329616
x1.x1.out.n1                          0.329616
x1.x1.out.n4                          0.329615
x1.x1.out.n3                          0.329616
x1.x1.out.n6                          0.329615
x1.x1.out.n5                          0.329615
x1.x1.out.t1                          0.329615
x1.x1.out.t7                          0.329615
x1.x1.out.t5                          0.329615
x1.x1.out.t3                          0.329616
x1.x1.out.t6                          0.329616
x1.x1.out.t9                          0.329616
x1.x1.out.t4                          0.329616
x1.x1.out.t8                          0.329615
x1.x1.net2.n4                          1.03296
x1.x1.net2.t6                          1.03296
x1.x1.net2.n0                          1.03296
x1.x1.net2.t11                         1.03296
x1.x1.net2.n8                          1.03296
x1.x1.net2.t0                          1.03296
x1.x1.net2.n7                          1.03296
x1.x1.net2.t4                          1.03296
x1.x1.net2.n6                          1.03296
x1.x1.net2.t5                          1.03296
x1.x1.net2.n5                          1.03296
x1.x1.net2.t3                          1.03296
x1.x1.net2.t2                          1.03296
x1.x1.net2.n3                          1.03296
x1.x1.net2.t9                          1.03296
x1.x1.net2.n2                          1.03296
x1.x1.net2.t10                         1.03296
x1.x1.net2.n1                          1.03296
x1.x1.net2.t8                          1.03296
x1.x1.net2.t7                          1.03296
x1.x1.net2.n10                         1.03296
x1.x1.net2.t1                          1.03296
x1.x1.net2.n9                          1.03296
x1.x1.net2                             1.03295
x1.x1.vd.n53                           1.80013
x1.x1.vd.n52                           1.80021
x1.x1.vd.n40                           1.80013
x1.x1.vd.n34                           1.80021
x1.x1.vd.n54                               1.8
x1.x1.vd.n41                               1.8
x1.x1.vd.n19                               1.8
x1.x1.vd.n16                               1.8
x1.x1.vd.n4                                1.8
x1.x1.vd.n1                                1.8
x1.x1.vd.n24                               1.8
x1.x1.vd.n21                               1.8
x1.x1.vd.n9                                1.8
x1.x1.vd.n6                                1.8
x1.x1.vd.n29                               1.8
x1.x1.vd.n14                               1.8
x1.x1.vd.n57                               1.8
x1.x1.vd.n56                               1.8
x1.x1.vd.n55                               1.8
x1.x1.vd.n45                               1.8
x1.x1.vd.n42                               1.8
x1.x1.vd.n32                               1.8
x1.x1.vd.n18                               1.8
x1.x1.vd.n23                               1.8
x1.x1.vd.n3                                1.8
x1.x1.vd.n8                                1.8
x1.x1.vd.n22                               1.8
x1.x1.vd.n7                                1.8
x1.x1.vd.n17                               1.8
x1.x1.vd.n2                                1.8
x1.x1.vd.n15                               1.8
x1.x1.vd.n20                               1.8
x1.x1.vd.n0                                1.8
x1.x1.vd.n5                                1.8
x1.x1.vd.n51                           1.80021
x1.x1.vd.n33                           1.80021
x1.x1.vd.n26                               1.8
x1.x1.vd.n25                               1.8
x1.x1.vd.n27                               1.8
x1.x1.vd.n11                               1.8
x1.x1.vd.n10                               1.8
x1.x1.vd.n12                               1.8
x1.x1.vd.n50                           1.80013
x1.x1.vd.n47                           1.80013
x1.x1.vd.n46                           1.80013
x1.x1.vd.n36                           1.80013
x1.x1.vd.n35                           1.80013
x1.x1.vd.n39                           1.80013
x1.x1.vd.n49                           1.80013
x1.x1.vd.n37                           1.80013
x1.x1.vd.n48                           1.80013
x1.x1.vd.n38                           1.80013
x1.x1.vd.n28                               1.8
x1.x1.vd.n13                               1.8
x1.x1.vd.n31                               1.8
x1.x1.vd.n44                               1.8
x1.x1.vd.n43                               1.8
x1.x1.vd.n30                               1.8
x1.x1.ib.n0                           0.635909
x1.x1.ib.t2                           0.635909
x1.x1.ib.t0                           0.635909
x1.x1.ib.n1                           0.635909
x1.x1.ib.t1                           0.635909
x1.x1.net1                            0.428384
x1.x1.net4                         0.000358136
x1.x1.net3                             1.11374
x1.x2.xcc.a                           0.750811
x1.x2.xcc.b1                          0.750811
x1.x2.d                               0.750811
x1.x2.vs.n20                                 0
x1.x2.vs.n14                                 0
x1.x2.vs.n7                                  0
x1.x2.vs.n1                                  0
x1.x2.vs.n21                                 0
x1.x2.vs.n8                                  0
x1.x2.vs.n28                                 0
x1.x2.vs.n27                                 0
x1.x2.vs.n29                                 0
x1.x2.vs.n26                                 0
x1.x2.vs.n25                                 0
x1.x2.vs.n24                                 0
x1.x2.vs.n12                                 0
x1.x2.vs.n11                                 0
x1.x2.vs.n13                                 0
x1.x2.vs.n0                                  0
x1.x2.vs.n18                                 0
x1.x2.vs.n17                                 0
x1.x2.vs.n5                                  0
x1.x2.vs.n4                                  0
x1.x2.vs.n16                                 0
x1.x2.vs.n15                                 0
x1.x2.vs.n19                                 0
x1.x2.vs.n3                                  0
x1.x2.vs.n2                                  0
x1.x2.vs.n6                                  0
x1.x2.vs.n23                                 0
x1.x2.vs.n10                                 0
x1.x2.vs.n22                                 0
x1.x2.vs.n9                                  0
x1.x2.out.n10                         0.171623
x1.x2.out.n4                           0.17163
x1.x2.out.n11                          0.17161
x1.x2.out.n12                          0.17161
x1.x2.out.n2                           0.17161
x1.x2.out.n3                           0.17163
x1.x2.out.n8                          0.171623
x1.x2.out.n7                          0.171623
x1.x2.out.n6                          0.171623
x1.x2.out.n5                          0.171623
x1.x2.out.n9                          0.171623
x1.x2.out.n1                           0.17161
x1.x2.out.n0                           0.17161
x1.x2.in1.t0                                 1
in2                                   0.899958
x1.x2.in2.t0                          0.899958
x1.x2.ib.n3                           0.635909
x1.x2.ib.t5                           0.635911
x1.x2.ib.n2                           0.635909
x1.x2.ib.t3                           0.635911
x1.x2.ib.n1                           0.635909
x1.x2.ib.t4                           0.635911
x1.x2.ib.n0                           0.635909
x1.x2.ib.t6                           0.635911
x1.x2.ib.t7                            0.63591
x1.x2.ib.n5                           0.635909
x1.x2.ib.t0                            0.63591
x1.x2.ib.n4                           0.635909
x1.x2.ib.t2                            0.63591
x1.x2.ib.n6                           0.635909
x1.x2.ib.t1                           0.635909
x1.x2.vd.n5                            1.80037
x1.x2.vd.n1                            1.80062
x1.x2.vd.n32                           1.80012
x1.x2.vd.n26                           1.80019
x1.x2.vd.n19                           1.80012
x1.x2.vd.n13                           1.80018
x1.x2.vd.n44                           1.80012
x1.x2.vd.n43                           1.80018
x1.x2.vd.n7                                1.8
x1.x2.vd.n6                            1.80037
x1.x2.vd.n33                               1.8
x1.x2.vd.n20                               1.8
x1.x2.vd.n45                               1.8
x1.x2.vd.n49                               1.8
x1.x2.vd.n35                               1.8
x1.x2.vd.n34                               1.8
x1.x2.vd.n8                                1.8
x1.x2.vd.n36                               1.8
x1.x2.vd.n21                               1.8
x1.x2.vd.n24                               1.8
x1.x2.vd.n11                               1.8
x1.x2.vd.n48                               1.8
x1.x2.vd.n25                           1.80019
x1.x2.vd.n12                           1.80018
x1.x2.vd.n42                           1.80018
x1.x2.vd.n0                            1.80062
x1.x2.vd.n30                           1.80012
x1.x2.vd.n29                           1.80012
x1.x2.vd.n17                           1.80012
x1.x2.vd.n16                           1.80012
x1.x2.vd.n40                           1.80012
x1.x2.vd.n39                           1.80012
x1.x2.vd.n28                           1.80012
x1.x2.vd.n27                           1.80012
x1.x2.vd.n31                           1.80012
x1.x2.vd.n15                           1.80012
x1.x2.vd.n14                           1.80012
x1.x2.vd.n18                           1.80012
x1.x2.vd.n41                           1.80012
x1.x2.vd.n38                           1.80012
x1.x2.vd.n37                           1.80012
x1.x2.vd.n4                            1.80037
x1.x2.vd.n3                            1.80037
x1.x2.vd.n2                            1.80037
x1.x2.vd.n47                               1.8
x1.x2.vd.n23                               1.8
x1.x2.vd.n10                               1.8
x1.x2.vd.n22                               1.8
x1.x2.vd.n9                                1.8
x1.x2.vd.n46                               1.8
x1.x2.e                               0.481992
x1.x2.c                               0.454543
x1.x2.b                                1.79875
xr1.xsky130_fd_pr__res_xhigh_po_0p35.ra      0.00484862
xr2.xsky130_fd_pr__res_xhigh_po_0p35.ra        0.904807
vss#branch                         3.00306e-05
vdd#branch                        -4.03993e-05
vin1#branch                        3.34327e-07


No. of Data Rows : 2070
ERROR: (internal)  This operation is not defined for display type PrinterOnly.
Can't open viewport for graphics.
binary raw file "/home/hugodg/projects-sky130/temp-sensor/amp-op/xschem/simulation/ampop_tb-tran.raw"
Doing analysis at TEMP = 27.000000 and TNOM = 27.000000

No. of Data Columns : 317  

Initial Transient Solution
--------------------------

Node                                   Voltage
----                                   -------
in1                                          1
ib                                    0.635916
vd                                         1.8
vs                                           0
out                                  0.0052614
x1.x1.in.n1                          0.0123094
x1.x1.in.n0                          0.0123094
x1.x1.in.n5                          0.0123094
x1.x1.in.n4                          0.0123094
x1.x1.in.n3                          0.0123094
x1.x1.in.n2                          0.0123094
x1.x1.in.n7                          0.0123094
x1.x1.in.n6                          0.0123094
x1.x1.in.t9                          0.0123094
x1.x1.in.t7                          0.0123094
x1.x1.in.t2                          0.0123094
x1.x1.in.t4                          0.0123094
x1.x1.in.t0                          0.0123094
x1.x1.in.t5                          0.0123094
x1.x1.in.t8                          0.0123094
x1.x1.in.t6                          0.0123094
x1.x1.in.t3                          0.0123094
x1.x1.in.n9                          0.0123094
x1.x1.in.t1                          0.0123094
x1.x1.in.n14                         0.0123094
x1.x1.in.n13                         0.0123094
x1.net1                              0.0123094
x1.x1.in.n8                          0.0123094
x1.x1.in.n12                         0.0123094
x1.x1.in.n11                         0.0123094
x1.x1.in.n10                         0.0123094
x1.x1.out.t0                         0.0052614
x1.x1.out.n7                         0.0052614
x1.x1.out.n0                         0.0052614
x1.x1.out.t2                         0.0052614
x1.x1.out.n2                         0.0052614
x1.x1.out.n1                         0.0052614
x1.x1.out.n4                         0.0052614
x1.x1.out.n3                         0.0052614
x1.x1.out.n6                         0.0052614
x1.x1.out.n5                         0.0052614
x1.x1.out.t1                         0.0052614
x1.x1.out.t7                         0.0052614
x1.x1.out.t5                         0.0052614
x1.x1.out.t3                         0.0052614
x1.x1.out.t6                         0.0052614
x1.x1.out.t9                         0.0052614
x1.x1.out.t4                         0.0052614
x1.x1.out.t8                         0.0052614
x1.x1.net2.n4                          1.25811
x1.x1.net2.t6                          1.25811
x1.x1.net2.n0                          1.25811
x1.x1.net2.t11                         1.25811
x1.x1.net2.n8                          1.25811
x1.x1.net2.t0                          1.25811
x1.x1.net2.n7                          1.25811
x1.x1.net2.t4                          1.25811
x1.x1.net2.n6                          1.25811
x1.x1.net2.t5                          1.25811
x1.x1.net2.n5                          1.25811
x1.x1.net2.t3                          1.25811
x1.x1.net2.t2                          1.25811
x1.x1.net2.n3                          1.25811
x1.x1.net2.t9                          1.25811
x1.x1.net2.n2                          1.25811
x1.x1.net2.t10                         1.25811
x1.x1.net2.n1                          1.25811
x1.x1.net2.t8                          1.25811
x1.x1.net2.t7                          1.25811
x1.x1.net2.n10                         1.25811
x1.x1.net2.t1                          1.25811
x1.x1.net2.n9                          1.25811
x1.x1.net2                             1.25811
x1.x1.vd.n53                               1.8
x1.x1.vd.n52                               1.8
x1.x1.vd.n40                               1.8
x1.x1.vd.n34                               1.8
x1.x1.vd.n54                               1.8
x1.x1.vd.n41                               1.8
x1.x1.vd.n19                               1.8
x1.x1.vd.n16                               1.8
x1.x1.vd.n4                                1.8
x1.x1.vd.n1                                1.8
x1.x1.vd.n24                               1.8
x1.x1.vd.n21                               1.8
x1.x1.vd.n9                                1.8
x1.x1.vd.n6                                1.8
x1.x1.vd.n29                               1.8
x1.x1.vd.n14                               1.8
x1.x1.vd.n57                               1.8
x1.x1.vd.n56                               1.8
x1.x1.vd.n55                               1.8
x1.x1.vd.n45                               1.8
x1.x1.vd.n42                               1.8
x1.x1.vd.n32                               1.8
x1.x1.vd.n18                               1.8
x1.x1.vd.n23                               1.8
x1.x1.vd.n3                                1.8
x1.x1.vd.n8                                1.8
x1.x1.vd.n22                               1.8
x1.x1.vd.n7                                1.8
x1.x1.vd.n17                               1.8
x1.x1.vd.n2                                1.8
x1.x1.vd.n15                               1.8
x1.x1.vd.n20                               1.8
x1.x1.vd.n0                                1.8
x1.x1.vd.n5                                1.8
x1.x1.vd.n51                               1.8
x1.x1.vd.n33                               1.8
x1.x1.vd.n26                               1.8
x1.x1.vd.n25                               1.8
x1.x1.vd.n27                               1.8
x1.x1.vd.n11                               1.8
x1.x1.vd.n10                               1.8
x1.x1.vd.n12                               1.8
x1.x1.vd.n50                               1.8
x1.x1.vd.n47                               1.8
x1.x1.vd.n46                               1.8
x1.x1.vd.n36                               1.8
x1.x1.vd.n35                               1.8
x1.x1.vd.n39                               1.8
x1.x1.vd.n49                               1.8
x1.x1.vd.n37                               1.8
x1.x1.vd.n48                               1.8
x1.x1.vd.n38                               1.8
x1.x1.vd.n28                               1.8
x1.x1.vd.n13                               1.8
x1.x1.vd.n31                               1.8
x1.x1.vd.n44                               1.8
x1.x1.vd.n43                               1.8
x1.x1.vd.n30                               1.8
x1.x1.ib.n0                           0.635916
x1.x1.ib.t2                           0.635916
x1.x1.ib.t0                           0.635916
x1.x1.ib.n1                           0.635916
x1.x1.ib.t1                           0.635916
x1.x1.net1                            0.247474
x1.x1.net4                         7.12014e-08
x1.x1.net3                             1.32337
x1.x2.xcc.a                            1.79143
x1.x2.xcc.b1                           1.79143
x1.x2.d                                1.79143
x1.x2.vs.n20                                 0
x1.x2.vs.n14                                 0
x1.x2.vs.n7                                  0
x1.x2.vs.n1                                  0
x1.x2.vs.n21                                 0
x1.x2.vs.n8                                  0
x1.x2.vs.n28                                 0
x1.x2.vs.n27                                 0
x1.x2.vs.n29                                 0
x1.x2.vs.n26                                 0
x1.x2.vs.n25                                 0
x1.x2.vs.n24                                 0
x1.x2.vs.n12                                 0
x1.x2.vs.n11                                 0
x1.x2.vs.n13                                 0
x1.x2.vs.n0                                  0
x1.x2.vs.n18                                 0
x1.x2.vs.n17                                 0
x1.x2.vs.n5                                  0
x1.x2.vs.n4                                  0
x1.x2.vs.n16                                 0
x1.x2.vs.n15                                 0
x1.x2.vs.n19                                 0
x1.x2.vs.n3                                  0
x1.x2.vs.n2                                  0
x1.x2.vs.n6                                  0
x1.x2.vs.n23                                 0
x1.x2.vs.n10                                 0
x1.x2.vs.n22                                 0
x1.x2.vs.n9                                  0
x1.x2.out.n10                        0.0123094
x1.x2.out.n4                         0.0123094
x1.x2.out.n11                        0.0123094
x1.x2.out.n12                        0.0123094
x1.x2.out.n2                         0.0123094
x1.x2.out.n3                         0.0123094
x1.x2.out.n8                         0.0123094
x1.x2.out.n7                         0.0123094
x1.x2.out.n6                         0.0123094
x1.x2.out.n5                         0.0123094
x1.x2.out.n9                         0.0123094
x1.x2.out.n1                         0.0123094
x1.x2.out.n0                         0.0123094
x1.x2.in1.t0                                 1
in2                                        0.9
x1.x2.in2.t0                               0.9
x1.x2.ib.n3                           0.635916
x1.x2.ib.t5                           0.635916
x1.x2.ib.n2                           0.635916
x1.x2.ib.t3                           0.635916
x1.x2.ib.n1                           0.635916
x1.x2.ib.t4                           0.635916
x1.x2.ib.n0                           0.635916
x1.x2.ib.t6                           0.635916
x1.x2.ib.t7                           0.635916
x1.x2.ib.n5                           0.635916
x1.x2.ib.t0                           0.635916
x1.x2.ib.n4                           0.635916
x1.x2.ib.t2                           0.635916
x1.x2.ib.n6                           0.635916
x1.x2.ib.t1                           0.635916
x1.x2.vd.n5                                1.8
x1.x2.vd.n1                                1.8
x1.x2.vd.n32                               1.8
x1.x2.vd.n26                               1.8
x1.x2.vd.n19                               1.8
x1.x2.vd.n13                               1.8
x1.x2.vd.n44                               1.8
x1.x2.vd.n43                               1.8
x1.x2.vd.n7                                1.8
x1.x2.vd.n6                                1.8
x1.x2.vd.n33                               1.8
x1.x2.vd.n20                               1.8
x1.x2.vd.n45                               1.8
x1.x2.vd.n49                               1.8
x1.x2.vd.n35                               1.8
x1.x2.vd.n34                               1.8
x1.x2.vd.n8                                1.8
x1.x2.vd.n36                               1.8
x1.x2.vd.n21                               1.8
x1.x2.vd.n24                               1.8
x1.x2.vd.n11                               1.8
x1.x2.vd.n48                               1.8
x1.x2.vd.n25                               1.8
x1.x2.vd.n12                               1.8
x1.x2.vd.n42                               1.8
x1.x2.vd.n0                                1.8
x1.x2.vd.n30                               1.8
x1.x2.vd.n29                               1.8
x1.x2.vd.n17                               1.8
x1.x2.vd.n16                               1.8
x1.x2.vd.n40                               1.8
x1.x2.vd.n39                               1.8
x1.x2.vd.n28                               1.8
x1.x2.vd.n27                               1.8
x1.x2.vd.n31                               1.8
x1.x2.vd.n15                               1.8
x1.x2.vd.n14                               1.8
x1.x2.vd.n18                               1.8
x1.x2.vd.n41                               1.8
x1.x2.vd.n38                               1.8
x1.x2.vd.n37                               1.8
x1.x2.vd.n4                                1.8
x1.x2.vd.n3                                1.8
x1.x2.vd.n2                                1.8
x1.x2.vd.n47                               1.8
x1.x2.vd.n23                               1.8
x1.x2.vd.n10                               1.8
x1.x2.vd.n22                               1.8
x1.x2.vd.n9                                1.8
x1.x2.vd.n46                               1.8
x1.x2.e                                      0
x1.x2.c                               0.455102
x1.x2.b                                1.79958
xr1.xsky130_fd_pr__res_xhigh_po_0p35.ra      0.00484886
xr2.xsky130_fd_pr__res_xhigh_po_0p35.ra        0.904849
vss#branch                          2.9799e-05
vdd#branch                        -4.37979e-05
vin1#branch                             -1e-12


No. of Data Rows : 2054

Total analysis time (seconds) = 3.603

Total elapsed time (seconds) = 53.336 

Total DRAM available = 3821.695 MB.
DRAM currently available = 1292.473 MB.
Maximum ngspice program size =  684.383 MB.
Current ngspice program size =  668.469 MB.

Shared ngspice pages =   10.457 MB.
Text (code) pages =    5.422 MB.
Stack = 0 bytes.
Library pages =  666.121 MB.

